data_image0
_chemical_formula_structural       Li30C2F2SNO2SO2C2F8C2F2SNO2SO2C2F8C2F2SNO2SO2C2F8C2F2SNO2SO2C2F8C2F2SNO2SO2C2F8C2F2SNO2SO2C2F8C2F2SNO2SO2C2F8C2F2SNO2SO2C2F8C2F2SNO2SO2C2F8C2F2SNO2SO2C2F8SO4SO4SO4SO4SO4SO4SO4SO4SO4SO4C4OH10C4OH10C4OH10C4OH10C4OH10C4OH10C4OH10C4OH10C4OH10C4OH10COC4H10COC4H10COC4H10COC4H10COC4H10COC4H10COC4H10COC4H10COC4H10COC4H10
_chemical_formula_sum              "Li30 C130 F100 S30 N10 O100 H200"
_cell_length_a       26.091851169050436
_cell_length_b       26.091851169050436
_cell_length_c       26.091851169050436
_cell_angle_alpha    90.0
_cell_angle_beta     90.0
_cell_angle_gamma    90.0

_space_group_name_H-M_alt    "P 1"
_space_group_IT_number       1

loop_
  _space_group_symop_operation_xyz
  'x, y, z'

loop_
  _atom_site_type_symbol
  _atom_site_label
  _atom_site_symmetry_multiplicity
  _atom_site_fract_x
  _atom_site_fract_y
  _atom_site_fract_z
  _atom_site_occupancy
  Li  Li1       1.0  0.35514574799474585  0.19303157665657233  0.7275613005016731  1.0000
  Li  Li2       1.0  0.5489836618794915  0.0950986568152459  0.022143158653507924  1.0000
  Li  Li3       1.0  0.3346558258142087  0.09999022235320175  0.05037243204725178  1.0000
  Li  Li4       1.0  0.4423373383982102  0.25054374094216125  0.11159192887983821  1.0000
  Li  Li5       1.0  0.38372516902427095  0.1902375560798756  0.9076773056693905  1.0000
  Li  Li6       1.0  0.19098721542268227  0.28718774882819875  0.8681063302981717  1.0000
  Li  Li7       1.0  0.28309758292511444  0.7539595359694033  0.9376805428842565  1.0000
  Li  Li8       1.0  0.4015583230226322  0.3532187095613961  0.845841524469098  1.0000
  Li  Li9       1.0  0.17308660741392526  0.19302424988434766  0.8190228064154694  1.0000
  Li  Li10      1.0  0.8770482025512507  0.010612547120782818  0.01565212822018648  1.0000
  Li  Li11      1.0  0.0750628994206116  0.15670371463907135  0.7747365657607381  1.0000
  Li  Li12      1.0  0.4097639500826992  0.14896949912892885  0.09448965441457115  1.0000
  Li  Li13      1.0  0.96261231164935  0.9796625392134141  0.18509039997817034  1.0000
  Li  Li14      1.0  0.4500466867210704  0.08294237100995848  0.016914514694284965  1.0000
  Li  Li15      1.0  0.31777550451787984  0.9236363113107351  0.08594675730252573  1.0000
  Li  Li16      1.0  0.35431445396890343  0.2232762237625478  0.8225848380780694  1.0000
  Li  Li17      1.0  0.04518997108946451  0.6463742220025003  0.23650679133567118  1.0000
  Li  Li18      1.0  0.05825267015944406  0.8148728517304435  0.2204960902074551  1.0000
  Li  Li19      1.0  0.8582051547040676  0.7363180574875867  0.07365747978356042  1.0000
  Li  Li20      1.0  0.33123023521809103  0.8235196126880414  0.20927036313649006  1.0000
  Li  Li21      1.0  0.9143414552873468  0.2350009572058719  0.8391325332646854  1.0000
  Li  Li22      1.0  0.2570879297348116  0.2038548344285061  0.13274987572014632  1.0000
  Li  Li23      1.0  0.09719509679743023  0.7098331601331325  0.9359294214439274  1.0000
  Li  Li24      1.0  0.8401010348798554  0.9998184636279998  0.8440854206302737  1.0000
  Li  Li25      1.0  0.10288882849310302  0.150413628169673  0.001924819349712232  1.0000
  Li  Li26      1.0  0.4752499578780065  0.9582991960976284  0.17440924258367263  1.0000
  Li  Li27      1.0  0.43914860336132294  0.13883798341978032  0.21052358318353484  1.0000
  Li  Li28      1.0  0.944105920635869  0.8288059374913812  0.1328537395656988  1.0000
  Li  Li29      1.0  0.49596523777509294  0.26310896668547257  0.7218767222749519  1.0000
  Li  Li30      1.0  0.9635908163876525  0.8273805882603494  0.2503938857258845  1.0000
  C   C1        1.0  0.257502618594176  0.23095295005928493  0.9819878629172365  1.0000
  C   C2        1.0  0.3041934414149447  0.2519054687770243  0.007519589113428948  1.0000
  F   F1        1.0  0.2363565528579717  0.2689567694730719  0.9499809349844802  1.0000
  F   F2        1.0  0.26466692436875944  0.1864631975890984  0.9552530791151799  1.0000
  S   S1        1.0  0.20807569247673205  0.21104635176410147  0.03093774354184228  1.0000
  N   N1        1.0  0.1826175524736985  0.26173344143939226  0.04763172961350405  1.0000
  O   O1        1.0  0.1744866613910586  0.18169159287644854  0.9964066060551804  1.0000
  O   O2        1.0  0.23586981085113914  0.18244240200352332  0.07060441929030992  1.0000
  S   S2        1.0  0.17574414211894648  0.2836142193229178  0.10397767419500167  1.0000
  O   O3        1.0  0.17774629979114592  0.33886633580402165  0.10680614349454835  1.0000
  O   O4        1.0  0.2038004113064823  0.25391989081475025  0.14125138059853984  1.0000
  C   C3        1.0  0.10913445663746786  0.26697185856489414  0.12197409755943438  1.0000
  C   C4        1.0  0.07152003082914692  0.27066956477113074  0.07730957788049542  1.0000
  F   F3        1.0  0.11078439706220342  0.21944399279694252  0.1422168161223282  1.0000
  F   F4        1.0  0.09492925526641126  0.3001829938877826  0.16024696649195874  1.0000
  F   F5        1.0  0.08095860988604878  0.2407054202213804  0.03260251618363643  1.0000
  F   F6        1.0  0.06562163753375082  0.3190973283595885  0.060656869064058726  1.0000
  F   F7        1.0  0.02397261872863747  0.25669317046942774  0.09280522046179235  1.0000
  F   F8        1.0  0.33453241563609837  0.26854821279647073  0.9675918356838161  1.0000
  F   F9        1.0  0.32736925964578306  0.2195681694978982  0.04094688387872181  1.0000
  F   F10       1.0  0.29292555558748234  0.2921532838207362  0.03389004460706422  1.0000
  C   C5        1.0  0.20810252077632124  0.6795263798714857  0.24041912393862136  1.0000
  C   C6        1.0  0.22252733094258653  0.6280658686451808  0.21099384494919116  1.0000
  F   F11       1.0  0.24925406625476634  0.6995958642713179  0.2664985307078561  1.0000
  F   F12       1.0  0.1920473165178782  0.7175850056687192  0.2070577501380334  1.0000
  S   S3        1.0  0.15516492002691962  0.6591334228308924  0.28808381403447786  1.0000
  N   N2        1.0  0.13991034888050274  0.7163171768824184  0.3082951051607101  1.0000
  O   O5        1.0  0.11711204315102666  0.6309591091251642  0.256469729059992  1.0000
  O   O6        1.0  0.18166821392966367  0.6316769577698865  0.32950440903166034  1.0000
  S   S4        1.0  0.0796348249320333  0.7256380946825505  0.3116885017973206  1.0000
  O   O7        1.0  0.042433554937385966  0.6849020045863152  0.2984629166226924  1.0000
  O   O8        1.0  0.07030815821056066  0.7760074606384206  0.2900875047523681  1.0000
  C   C7        1.0  0.06657979109050781  0.7330442384148594  0.3791202830304968  1.0000
  C   C8        1.0  0.018916519061915316  0.7659391830640181  0.39703583823473926  1.0000
  F   F13       1.0  0.062664392396176  0.6839503664737441  0.3981856225028476  1.0000
  F   F14       1.0  0.11036012666727142  0.754204101562281  0.39943122212663174  1.0000
  F   F15       1.0  0.014011271091168983  0.757591749277551  0.44757268943233053  1.0000
  F   F16       1.0  0.9787301408242627  0.7510605913732726  0.367847798065962  1.0000
  F   F17       1.0  0.02745113772723036  0.8176150872098821  0.39010263909804554  1.0000
  F   F18       1.0  0.2532281039467717  0.6381751551918124  0.16937050465939893  1.0000
  F   F19       1.0  0.1826416979433288  0.5990893887817355  0.19469411990306376  1.0000
  F   F20       1.0  0.25129148397785445  0.5951571265848048  0.24250598238523813  1.0000
  C   C9        1.0  0.557124134497699  0.2559412115580848  0.21429525884435308  1.0000
  C   C10       1.0  0.5822047619993702  0.3051803395784044  0.1907200822110584  1.0000
  F   F21       1.0  0.5934343216845623  0.23756804221513525  0.2504651723505072  1.0000
  F   F22       1.0  0.5112400769717197  0.2659979912898063  0.2369463921875113  1.0000
  S   S5        1.0  0.5353242247743637  0.19683386842601353  0.17365460084237083  1.0000
  N   N3        1.0  0.5872408170936851  0.17904134013845868  0.15118666645926454  1.0000
  O   O9        1.0  0.5134016713957635  0.16038724017266798  0.21095053640842573  1.0000
  O   O10       1.0  0.49597094189124014  0.21901435674209266  0.1391089492456312  1.0000
  S   S6        1.0  0.6074578571412578  0.16319731292392492  0.09448850463030305  1.0000
  O   O11       1.0  0.6567874348573353  0.18056173820232072  0.07795307380921342  1.0000
  O   O12       1.0  0.56600813427595  0.15870203969704377  0.05341859383489364  1.0000
  C   C11       1.0  0.6227423226786455  0.09380131689939691  0.11048966902814497  1.0000
  C   C12       1.0  0.6728575863112637  0.08523963997763907  0.1438441441231243  1.0000
  F   F23       1.0  0.5851098835834575  0.06778553152633082  0.13417867430398236  1.0000
  F   F24       1.0  0.6344126329999458  0.07201328828016541  0.06414531453349961  1.0000
  F   F25       1.0  0.6700444474686251  0.11830245312994156  0.183407454265889  1.0000
  F   F26       1.0  0.7144836094310149  0.09522704939185134  0.1156123412039906  1.0000
  F   F27       1.0  0.6703357261498794  0.034401085388096136  0.16095714990822704  1.0000
  F   F28       1.0  0.5508808059218704  0.3305806071066098  0.16236755194377334  1.0000
  F   F29       1.0  0.6223322329563535  0.2903009813648136  0.16222804478590952  1.0000
  F   F30       1.0  0.6011991981085211  0.33544189499217214  0.22846443364167562  1.0000
  C   C13       1.0  0.3004443781780659  0.028401626055533306  0.8968187430413748  1.0000
  C   C14       1.0  0.2611363201428213  0.9864628616148566  0.9203111352073656  1.0000
  F   F31       1.0  0.33338723050506236  0.00803729864321589  0.8614808900839084  1.0000
  F   F32       1.0  0.27169210624690177  0.06172271908059522  0.8677315006267684  1.0000
  S   S7        1.0  0.33762188596450565  0.07405952101597567  0.9398191416229381  1.0000
  N   N4        1.0  0.38595575050440123  0.04612551222228205  0.9608448632724138  1.0000
  O   O13       1.0  0.34943745236501034  0.11620639640917993  0.9054271778567023  1.0000
  O   O14       1.0  0.305703108158971  0.07925999526062996  0.984998534697136  1.0000
  S   S8        1.0  0.4360825119797005  0.0255267821238396  0.928836019032544  1.0000
  O   O15       1.0  0.48258745301045836  0.039883333430721535  0.9602312617346667  1.0000
  O   O16       1.0  0.4321349193258617  0.03189923147297679  0.8742239491273538  1.0000
  C   C15       1.0  0.43621665347764654  0.9544183357365332  0.9363793703541805  1.0000
  C   C16       1.0  0.4443264651820377  0.9374548019062846  0.9945218528545975  1.0000
  F   F33       1.0  0.39238304456312717  0.933711870852169  0.9202287340014845  1.0000
  F   F34       1.0  0.4745159674483374  0.9361497967619815  0.9052968689729834  1.0000
  F   F35       1.0  0.44572153676067594  0.8844225355854753  0.9951421231410997  1.0000
  F   F36       1.0  0.401244048656016  0.9478216401289726  0.02192661594968084  1.0000
  F   F37       1.0  0.48666152193378914  0.9555654371746827  0.016335904924430548  1.0000
  F   F38       1.0  0.22581801351791278  0.00800307339816853  0.9480634780866981  1.0000
  F   F39       1.0  0.2891753425663354  0.951937484547378  0.9489541776330594  1.0000
  F   F40       1.0  0.24145431304134166  0.959571668826195  0.8810858616394248  1.0000
  C   C17       1.0  0.9910963389107644  0.07739772800771706  0.8955486146865377  1.0000
  C   C18       1.0  0.021466472285583862  0.02956118348992063  0.8722294566836084  1.0000
  F   F41       1.0  0.011225727070965029  0.0863813757558707  0.9445834643685567  1.0000
  F   F42       1.0  0.9973544920384232  0.11652182056006434  0.8617775344250804  1.0000
  S   S9        1.0  0.9181549064432396  0.06475201736563815  0.9009161909114903  1.0000
  N   N5        1.0  0.8975473230059328  0.12042035575179723  0.9020008207377394  1.0000
  O   O17       1.0  0.9051347493911801  0.033349071108919215  0.8557200876392625  1.0000
  O   O18       1.0  0.9134867823147196  0.041029668346025616  0.9511774771461583  1.0000
  S   S10       1.0  0.849321921448662  0.1451004750667441  0.8752549223544244  1.0000
  O   O19       1.0  0.8279290353562372  0.1171844795599175  0.8322779027196459  1.0000
  O   O20       1.0  0.8625655199101574  0.19905333532488542  0.8701429814984144  1.0000
  C   C19       1.0  0.8041032057524948  0.14273690187293592  0.9319841283586248  1.0000
  C   C20       1.0  0.7461556116855222  0.12843856797616252  0.9210868563269161  1.0000
  F   F43       1.0  0.8230045093359288  0.10873394845074344  0.9666024463211089  1.0000
  F   F44       1.0  0.8058324812917299  0.1903303053441697  0.9539580387678672  1.0000
  F   F45       1.0  0.7431278464461701  0.08197118656482959  0.8995927892188976  1.0000
  F   F46       1.0  0.7231664417675401  0.16260670707153987  0.8892615943085209  1.0000
  F   F47       1.0  0.7226118624888892  0.12804610827931484  0.9676936682438283  1.0000
  F   F48       1.0  0.012727728586537304  0.024769189269582974  0.8219961485327978  1.0000
  F   F49       1.0  0.00454471395040981  0.9865806378500532  0.8985549172862184  1.0000
  F   F50       1.0  0.07173925636293291  0.03454400357262201  0.8790254482309745  1.0000
  C   C21       1.0  0.9739057226875644  0.363113752972737  0.7817663467759529  1.0000
  C   C22       1.0  0.9311068429620581  0.40308753609921644  0.8029779502154394  1.0000
  F   F51       1.0  0.009439077296751383  0.38981136041679143  0.7528738011640796  1.0000
  F   F52       1.0  0.005080321788636973  0.3440453474090046  0.8215676622622161  1.0000
  S   S11       1.0  0.941962722760115  0.3080969590051727  0.7484743432928742  1.0000
  N   N6        1.0  0.9879102867038361  0.2659044755026668  0.7404890915508613  1.0000
  O   O21       1.0  0.9054873499000666  0.29290255990212016  0.7891560102670856  1.0000
  O   O22       1.0  0.9195748900143536  0.32452354358221475  0.7013358711303885  1.0000
  S   S12       1.0  0.9758812820170282  0.20629505990685484  0.7458716149712994  1.0000
  O   O23       1.0  0.9574840438567329  0.18937981701586673  0.796372056333734  1.0000
  O   O24       1.0  0.021501387401192087  0.17864006542888886  0.7261869250398609  1.0000
  C   C23       1.0  0.9222086625111672  0.19331629508844722  0.7001546594256185  1.0000
  C   C24       1.0  0.9062416083799458  0.13632417174827266  0.6949254405742615  1.0000
  F   F53       1.0  0.8802948100629662  0.2229607996116634  0.7139681676226729  1.0000
  F   F54       1.0  0.9374429208021808  0.21310024972836575  0.6544764132836307  1.0000
  F   F55       1.0  0.8611704483315191  0.1324195043737765  0.6694339568274529  1.0000
  F   F56       1.0  0.9004850218109497  0.11114772889092567  0.7405933386578365  1.0000
  F   F57       1.0  0.9415399854108737  0.10993279018095779  0.6676517912118849  1.0000
  F   F58       1.0  0.9472854573986114  0.42223144416322134  0.8507626011366018  1.0000
  F   F59       1.0  0.884775136094362  0.3841735848888332  0.812930099578763  1.0000
  F   F60       1.0  0.928369206619692  0.4433338180972375  0.7689753800546697  1.0000
  C   C25       1.0  0.3916126891034946  0.2784344411950895  0.5899179429364575  1.0000
  C   C26       1.0  0.44266694322173467  0.29526306700454674  0.5644195604840401  1.0000
  F   F61       1.0  0.35539870053372963  0.31341126189236973  0.5837167731171262  1.0000
  F   F62       1.0  0.377368778328745  0.23428272529972685  0.5678114240749599  1.0000
  S   S13       1.0  0.3931878935508031  0.27158747587850396  0.6614084626360563  1.0000
  N   N7        1.0  0.37253125265139025  0.3239241227171075  0.6872556129831331  1.0000
  O   O25       1.0  0.35104753360178476  0.23373849407948888  0.6683014193233662  1.0000
  O   O26       1.0  0.44740022179211425  0.25446565508067903  0.6715974675586102  1.0000
  S   S14       1.0  0.4084225351032394  0.36063673439780886  0.7175926708971734  1.0000
  O   O27       1.0  0.4645588356865186  0.34720610436203464  0.7202490558179264  1.0000
  O   O28       1.0  0.3835028773991033  0.3702140540897291  0.7667766092726237  1.0000
  C   C27       1.0  0.40858733751500165  0.4268995682917414  0.6858168496023067  1.0000
  C   C28       1.0  0.3740225228471269  0.4665517950845732  0.7126394002701624  1.0000
  F   F63       1.0  0.4578862543172629  0.4406854816663612  0.6844834831127238  1.0000
  F   F64       1.0  0.39293494101181925  0.42410942513446503  0.6354528493063545  1.0000
  F   F65       1.0  0.32488955824089594  0.4536895417386672  0.711511461903148  1.0000
  F   F66       1.0  0.3775565764258694  0.5135204824368014  0.6911177383397092  1.0000
  F   F67       1.0  0.39337952426215445  0.4671765112035788  0.7615726856751651  1.0000
  F   F68       1.0  0.47610266973832693  0.256278864871486  0.5616984043828503  1.0000
  F   F69       1.0  0.46352019723099397  0.33092554238704236  0.5935934199801773  1.0000
  F   F70       1.0  0.4349710538538624  0.3152811943737367  0.5158373425422331  1.0000
  C   C29       1.0  0.9254675343884091  0.8823705539283245  0.8593660535534344  1.0000
  C   C30       1.0  0.9553274318311843  0.8996326484068586  0.8097018886153373  1.0000
  F   F71       1.0  0.9521015204362948  0.8440808214932013  0.8806466440490074  1.0000
  F   F72       1.0  0.9251275815064717  0.925742332828487  0.8889231744722743  1.0000
  S   S15       1.0  0.8522381576140077  0.8666330733893022  0.8546151449576105  1.0000
  N   N8        1.0  0.8259521729379361  0.8734846378429602  0.9110258607195448  1.0000
  O   O29       1.0  0.8340776983606581  0.9038745858333332  0.8149782486216868  1.0000
  O   O30       1.0  0.8551486448580128  0.8118232405899973  0.8434798675824033  1.0000
  S   S16       1.0  0.8164541883605153  0.9297202031347194  0.9350996604637759  1.0000
  O   O31       1.0  0.8059248472946012  0.9722207521687938  0.8985779129715806  1.0000
  O   O32       1.0  0.8536451102967497  0.9406128760293556  0.9760033124540168  1.0000
  C   C31       1.0  0.7564519298064329  0.9172948678106946  0.9708038346890615  1.0000
  C   C32       1.0  0.7383493430279116  0.9681171337897726  0.9980496516069215  1.0000
  F   F73       1.0  0.7192997172738915  0.8989596413485925  0.9400640456720453  1.0000
  F   F74       1.0  0.7646157813714253  0.8819554818075375  0.009320534538709407  1.0000
  F   F75       1.0  0.7734986313654081  0.00684524064018337  0.0018574611546722146  1.0000
  F   F76       1.0  0.7262482468674933  0.9571605712159718  0.047389508394355885  1.0000
  F   F77       1.0  0.6961185333831355  0.9854557272482782  0.9741354112581901  1.0000
  F   F78       1.0  0.9352805598552916  0.9433650763057845  0.7901122475167291  1.0000
  F   F79       1.0  0.9562349948801445  0.8646052372017816  0.7706142058981469  1.0000
  F   F80       1.0  0.00509212624045622  0.9075056045520197  0.8200261848201054  1.0000
  C   C33       1.0  0.802687054795608  0.9928515995744587  0.16299380110846973  1.0000
  C   C34       1.0  0.812335661112151  0.04842316445138534  0.18534407423480623  1.0000
  F   F81       1.0  0.7889984898223548  0.9624525299622252  0.20194312645206455  1.0000
  F   F82       1.0  0.7644517454825085  0.9966301777734998  0.1291468350853173  1.0000
  S   S17       1.0  0.8559155509648411  0.9613055435025025  0.12636052454226793  1.0000
  N   N9        1.0  0.8312197179315635  0.910415708534602  0.10762938903051397  1.0000
  O   O33       1.0  0.8680909998412636  0.9927248550219709  0.08204055688233879  1.0000
  O   O34       1.0  0.8964707416695605  0.9577722564466055  0.16504118362854808  1.0000
  S   S18       1.0  0.8400013869099526  0.8499941619840827  0.1152708552763624  1.0000
  O   O35       1.0  0.879104783345474  0.8355528715766413  0.15406457648233987  1.0000
  O   O36       1.0  0.8495204508656221  0.8177151184412075  0.06984594493478108  1.0000
  C   C35       1.0  0.7754651457252961  0.8284211430229875  0.143186850783189  1.0000
  C   C36       1.0  0.7724366139630987  0.771020079744789  0.16270022285867938  1.0000
  F   F83       1.0  0.7662944664028636  0.8613134048421873  0.18361019955849878  1.0000
  F   F84       1.0  0.7382125187000067  0.8353386284413504  0.10775969791423293  1.0000
  F   F85       1.0  0.8067362117264631  0.740222724862083  0.13549441076812108  1.0000
  F   F86       1.0  0.725000347675173  0.7491408349069544  0.1542190308356891  1.0000
  F   F87       1.0  0.784418899082479  0.7662089991056009  0.21269169305176458  1.0000
  F   F88       1.0  0.8252454388744721  0.08092641592654175  0.14816196731129405  1.0000
  F   F89       1.0  0.8497952493057  0.046531769330347014  0.2203986970008952  1.0000
  F   F90       1.0  0.7712439044156475  0.06580292018668923  0.20966431107383515  1.0000
  C   C37       1.0  0.0809881210155969  0.06278473648290468  0.12039352745220804  1.0000
  C   C38       1.0  0.12216151239513605  0.09391514554193965  0.09142662912433036  1.0000
  F   F91       1.0  0.09926355869575725  0.014457732322475474  0.13169897289909524  1.0000
  F   F92       1.0  0.07147288967415447  0.08532970641197422  0.16559614616862176  1.0000
  S   S19       1.0  0.01953268845119461  0.051377343497578526  0.08448308192922374  1.0000
  N   N10       1.0  0.006702667390937928  0.11229904620472489  0.07324815658411384  1.0000
  O   O37       1.0  0.02920842967646497  0.02721056453219981  0.03572161262001863  1.0000
  O   O38       1.0  0.9868612618637562  0.026276556445073086  0.12283988511332002  1.0000
  S   S20       1.0  0.9494669814166358  0.13381879182806444  0.07121265516813927  1.0000
  O   O39       1.0  0.9084495774361366  0.10152556761254916  0.051810045643809984  1.0000
  O   O40       1.0  0.9511709617019724  0.18594847749840857  0.051222889144229296  1.0000
  C   C39       1.0  0.93346811658733  0.15393580064431173  0.13606010462803042  1.0000
  C   C40       1.0  0.881881129091533  0.18519843489417917  0.14263725390303317  1.0000
  F   F93       1.0  0.9291445444778197  0.11000484332842592  0.1651523294411319  1.0000
  F   F94       1.0  0.9724251838116634  0.18343083321267387  0.15484029760189036  1.0000
  F   F95       1.0  0.8493828600148718  0.17150028838535838  0.1076320718604729  1.0000
  F   F96       1.0  0.8929581507304895  0.23451459846046205  0.13908748660595982  1.0000
  F   F97       1.0  0.858846734325672  0.1760193238204471  0.1904667464106519  1.0000
  F   F98       1.0  0.10640601856924664  0.14359119158414044  0.08521089537093636  1.0000
  F   F99       1.0  0.13076918068761825  0.07537985661718682  0.04072037637790445  1.0000
  F   F100      1.0  0.16642360758023708  0.09148335181489038  0.11502556796583262  1.0000
  S   S21       1.0  0.02766212314042825  0.7464610710394164  0.15754459020048128  1.0000
  O   O41       1.0  0.9973635791667554  0.7703290593996559  0.20510733275789886  1.0000
  O   O42       1.0  0.0432594833033105  0.693521937244324  0.17184752323432712  1.0000
  O   O43       1.0  0.0720941564403557  0.7810324011514771  0.15061790650797358  1.0000
  O   O44       1.0  0.9919431550242263  0.7463572071938639  0.11256617941634874  1.0000
  S   S22       1.0  0.3616060025358242  0.9191946946830324  0.17239865316017375  1.0000
  O   O45       1.0  0.4120213598624187  0.9369952714604639  0.1875424617554295  1.0000
  O   O46       1.0  0.3306909863963482  0.8944689672587839  0.2155266777954972  1.0000
  O   O47       1.0  0.3663756909413605  0.8785398560084101  0.13118003693275565  1.0000
  O   O48       1.0  0.3284489070735368  0.9626649717688294  0.15477246033007194  1.0000
  S   S23       1.0  0.024432072522173588  0.9013205317124419  0.2194980326575436  1.0000
  O   O49       1.0  0.9752508936289667  0.8854883856020118  0.19237845438709344  1.0000
  O   O50       1.0  0.02208018880175785  0.9549096768804383  0.2326366174892183  1.0000
  O   O51       1.0  0.07005213958019518  0.8896770496907307  0.1874995364760868  1.0000
  O   O52       1.0  0.025914412726761208  0.8666093111810946  0.26689137366612653  1.0000
  S   S24       1.0  0.43758106414246845  0.18253438474497202  0.005738726586698114  1.0000
  O   O53       1.0  0.45081124845416914  0.21847587444319524  0.04489907566963308  1.0000
  O   O54       1.0  0.3941115535795168  0.14736210072211328  0.02251894647846802  1.0000
  O   O55       1.0  0.48573402929084836  0.1471995978788873  0.00016495724937697618  1.0000
  O   O56       1.0  0.4289883430454717  0.20851835941995375  0.9562978497534678  1.0000
  S   S25       1.0  0.19187408235481657  0.723906902836202  0.9416254527081365  1.0000
  O   O57       1.0  0.15719735535151255  0.728568511520536  0.9850017540930868  1.0000
  O   O58       1.0  0.21777680560818533  0.7727393904870339  0.9269204784418754  1.0000
  O   O59       1.0  0.16052904689906802  0.7043797333494942  0.8967229276856991  1.0000
  O   O60       1.0  0.23682911419216426  0.6903266867632507  0.9531838506940075  1.0000
  S   S26       1.0  0.34943936867212383  0.1677370444758396  0.16414895103649596  1.0000
  O   O61       1.0  0.3632850708286852  0.1406151666368532  0.2128174027984111  1.0000
  O   O62       1.0  0.31146621017215304  0.20610917811684398  0.18284061062171153  1.0000
  O   O63       1.0  0.32877851189706125  0.13653266596222297  0.11792417410573389  1.0000
  O   O64       1.0  0.3993162436998209  0.19110449341802935  0.1441879296192887  1.0000
  S   S27       1.0  0.10286046714782301  0.18897662599918338  0.8858137745498865  1.0000
  O   O65       1.0  0.08651360094670317  0.15927501552398446  0.930512404495446  1.0000
  O   O66       1.0  0.1119989525107486  0.15196468714735123  0.8417521250888591  1.0000
  O   O67       1.0  0.1514668305592603  0.22081415238310503  0.8873728820174415  1.0000
  O   O68       1.0  0.0640878253200942  0.2251066803173764  0.8676276367812159  1.0000
  S   S28       1.0  0.26714394294368765  0.2035788862041601  0.811394371057993  1.0000
  O   O69       1.0  0.30176164768789543  0.1990104100455427  0.8566625274776888  1.0000
  O   O70       1.0  0.22920144535753312  0.24854618240703427  0.8199242372816664  1.0000
  O   O71       1.0  0.2356459861802807  0.15920832803643417  0.7976145898661364  1.0000
  O   O72       1.0  0.3024120423222221  0.21853259713375528  0.7696253914275736  1.0000
  S   S29       1.0  0.45452121902593223  0.05949443716900114  0.10639797007936988  1.0000
  O   O73       1.0  0.4076291839582446  0.06616011983264825  0.07162734402750369  1.0000
  O   O74       1.0  0.45731519479743565  0.00865170502995075  0.13285067347431717  1.0000
  O   O75       1.0  0.4551574329876189  0.10466217909594888  0.13928026710157934  1.0000
  O   O76       1.0  0.500869022873382  0.05977153517761526  0.07280510637946941  1.0000
  S   S30       1.0  0.43957019092629607  0.2460622651264974  0.812021003484112  1.0000
  O   O77       1.0  0.4221164657364105  0.20060401104114095  0.8469767448031437  1.0000
  O   O78       1.0  0.4376270555131928  0.2955562619929144  0.843965076543545  1.0000
  O   O79       1.0  0.39826994001584226  0.24802111425793144  0.7664500705404809  1.0000
  O   O80       1.0  0.4882597220664598  0.23699391660392646  0.7855295906854718  1.0000
  C   C41       1.0  0.7693214651193703  0.20892806588082308  0.5700017183005132  1.0000
  C   C42       1.0  0.7198995214004215  0.22378519493189714  0.5446873013309931  1.0000
  C   C43       1.0  0.7578416357251533  0.19075074312487464  0.6250725521286785  1.0000
  C   C44       1.0  0.796542224405414  0.16469854791665178  0.5401379882435109  1.0000
  O   O81       1.0  0.6931919491593768  0.17790343697445407  0.5258155088771073  1.0000
  H   H1        1.0  0.6610458973301794  0.189060943512178  0.5120334281167145  1.0000
  H   H2        1.0  0.7274746834201423  0.24877843882919215  0.5098450053930815  1.0000
  H   H3        1.0  0.6933099936775693  0.24471050208862463  0.5686679685495074  1.0000
  H   H4        1.0  0.794462264664406  0.24283520394733984  0.5702891643675402  1.0000
  H   H5        1.0  0.7819790568655529  0.15959542207336397  0.6339143931504321  1.0000
  H   H6        1.0  0.7188459357494115  0.17772905302712427  0.6354895975977406  1.0000
  H   H7        1.0  0.7651174705737432  0.22378097905624741  0.6522227913129449  1.0000
  H   H8        1.0  0.777309399691342  0.12881263112472047  0.5475770924581722  1.0000
  H   H9        1.0  0.8369096170130091  0.16162019216950288  0.552045920646887  1.0000
  H   H10       1.0  0.7925547725636141  0.17218326024061478  0.4987917459623328  1.0000
  C   C45       1.0  0.504847276441037  0.7895166592658489  0.6955290773150185  1.0000
  C   C46       1.0  0.44999490162381217  0.8048624466308691  0.6882417446237474  1.0000
  C   C47       1.0  0.5106843479088007  0.7486345465675639  0.7351648238666739  1.0000
  C   C48       1.0  0.5328253602983415  0.773988822725045  0.6447400401012888  1.0000
  O   O82       1.0  0.41956394466120983  0.7627611793469664  0.6640173231403942  1.0000
  H   H11       1.0  0.38474081179443337  0.7763730920356791  0.6642802404763684  1.0000
  H   H12       1.0  0.4455030777497354  0.8418356760790082  0.6679181579006632  1.0000
  H   H13       1.0  0.43395157846947296  0.8108857831500663  0.7278042882436667  1.0000
  H   H14       1.0  0.5237114036664688  0.8235073483225149  0.7105280130924926  1.0000
  H   H15       1.0  0.5450973910532851  0.7275735648671997  0.7270837567689854  1.0000
  H   H16       1.0  0.4796133443702846  0.7207752737512974  0.7316725457830061  1.0000
  H   H17       1.0  0.5089213453643678  0.7651600125916633  0.7728470869468134  1.0000
  H   H18       1.0  0.5663070781856581  0.7977402996127829  0.6441605488301622  1.0000
  H   H19       1.0  0.5084575990428974  0.7827497955866083  0.6129519544408957  1.0000
  H   H20       1.0  0.5438862849575443  0.7331021108896876  0.641143131649223  1.0000
  C   C49       1.0  0.9208618818717895  0.2761908288265873  0.9626111235389396  1.0000
  C   C50       1.0  0.9751051393099128  0.2763740277866392  0.9385060879887583  1.0000
  C   C51       1.0  0.921004455121035  0.29737560396648455  0.01867207492651547  1.0000
  C   C52       1.0  0.8801717831462786  0.3091601261917503  0.9317330921267545  1.0000
  O   O83       1.0  0.9677306146449769  0.24659423198120892  0.8912472717395441  1.0000
  H   H21       1.0  0.0023871667669897556  0.23562414027918666  0.8815883173645881  1.0000
  H   H22       1.0  0.0030434099706268527  0.2577088132395901  0.96380145686557  1.0000
  H   H23       1.0  0.9841170334249196  0.3170848226289761  0.9326395053914466  1.0000
  H   H24       1.0  0.9109446092979319  0.23417579536279276  0.9616793383680646  1.0000
  H   H25       1.0  0.9415599150048543  0.33473861028151247  0.01759675835283822  1.0000
  H   H26       1.0  0.9385183523542848  0.27192781202186406  0.04531644735895644  1.0000
  H   H27       1.0  0.880645877526162  0.3001163064002323  0.0322227807660225  1.0000
  H   H28       1.0  0.8990401262473602  0.33670014224290545  0.9031291423661764  1.0000
  H   H29       1.0  0.8622911047315022  0.33572704149066307  0.9597931939285173  1.0000
  H   H30       1.0  0.8499462543062449  0.2876725745279178  0.9121817771704165  1.0000
  C   C53       1.0  0.1860247465215264  0.3882898125686613  0.787212108331137  1.0000
  C   C54       1.0  0.1354139258693535  0.3761795181340982  0.8156719517967789  1.0000
  C   C55       1.0  0.18264016489763799  0.43335369065005663  0.750187138590933  1.0000
  C   C56       1.0  0.23343916690835798  0.3977717001663286  0.8247997058398688  1.0000
  O   O84       1.0  0.13113787817625835  0.3199615828677833  0.8156972470506773  1.0000
  H   H31       1.0  0.09972155609588708  0.30830736952623655  0.8291389916677099  1.0000
  H   H32       1.0  0.10125306874100748  0.3938739314974411  0.8014050453366671  1.0000
  H   H33       1.0  0.13755559069941675  0.39259383834561373  0.8546891144121921  1.0000
  H   H34       1.0  0.1932047660144407  0.35398369936111096  0.7623449574419112  1.0000
  H   H35       1.0  0.14534231302446954  0.4337024585447162  0.7302966372755031  1.0000
  H   H36       1.0  0.21462371388360937  0.43634696236136544  0.7238704930010451  1.0000
  H   H37       1.0  0.18475538468953476  0.46550165878636746  0.7767958293849203  1.0000
  H   H38       1.0  0.264386377007341  0.3676339381920939  0.8253071439635273  1.0000
  H   H39       1.0  0.22103414443973646  0.40393071122916263  0.8641269269462486  1.0000
  H   H40       1.0  0.2544652718192563  0.43410488303855405  0.8126342217604365  1.0000
  C   C57       1.0  0.20363790846325633  0.8772804589734087  0.27862338907648193  1.0000
  C   C58       1.0  0.2007906593539972  0.8339585040581976  0.24014585854423431  1.0000
  C   C59       1.0  0.2149088603821003  0.9306404138106288  0.25325148289355653  1.0000
  C   C60       1.0  0.15594907289776955  0.8808861824381966  0.31459247359713977  1.0000
  O   O85       1.0  0.2516149566186156  0.80808145932015  0.23224875692944308  1.0000
  H   H41       1.0  0.24646775571171697  0.7725423941157646  0.22091380035300776  1.0000
  H   H42       1.0  0.1821200791470303  0.8447101367492793  0.20425342630811702  1.0000
  H   H43       1.0  0.1747859885621895  0.8022010793116209  0.25679243517790773  1.0000
  H   H44       1.0  0.23920226892153998  0.8686290988787384  0.30075596971472324  1.0000
  H   H45       1.0  0.23070881253302322  0.9575997888063892  0.28051555072036566  1.0000
  H   H46       1.0  0.17839056224270933  0.9461260915949354  0.2398449983274126  1.0000
  H   H47       1.0  0.24302875096580476  0.9260366776011227  0.22108550147037861  1.0000
  H   H48       1.0  0.15271166366019898  0.913909136402538  0.3429760480396638  1.0000
  H   H49       1.0  0.1494719548540922  0.8475907296023135  0.3385861717040259  1.0000
  H   H50       1.0  0.12168358540102565  0.8845237166010689  0.29029063330640065  1.0000
  C   C61       1.0  0.41451639172421395  0.015537533054798346  0.29716672649111153  1.0000
  C   C62       1.0  0.4646891445702375  0.048939034326343306  0.2872383393359955  1.0000
  C   C63       1.0  0.389880347472878  0.028319148197367663  0.3487675113981258  1.0000
  C   C64       1.0  0.37592963168649596  0.024926977997309717  0.2541218695845146  1.0000
  O   O86       1.0  0.4485691691313578  0.10437051715327206  0.27547336344328766  1.0000
  H   H51       1.0  0.4442459802832702  0.1209358423653325  0.30810079161939974  1.0000
  H   H52       1.0  0.48545041583804827  0.04067668457571633  0.252570044083991  1.0000
  H   H53       1.0  0.4894018411061141  0.0472687810462045  0.3207840618809035  1.0000
  H   H54       1.0  0.4306172040919586  0.9763671808487309  0.29958740563690245  1.0000
  H   H55       1.0  0.351895691130226  0.01021069751907893  0.3577760711387551  1.0000
  H   H56       1.0  0.38477147270824963  0.07060365276746451  0.35127135827264316  1.0000
  H   H57       1.0  0.4188779067145718  0.024395701013159094  0.3783418790809874  1.0000
  H   H58       1.0  0.34836087102863816  0.9931938903510746  0.25026587641070175  1.0000
  H   H59       1.0  0.39703200562051216  0.025545178672129333  0.2172122615325441  1.0000
  H   H60       1.0  0.35744110065531287  0.06235663347374565  0.25946223424845544  1.0000
  C   C65       1.0  0.8968425052495823  0.6150560596515341  0.15388022773801982  1.0000
  C   C66       1.0  0.9051209519799628  0.6524524097103372  0.10858562628015746  1.0000
  C   C67       1.0  0.9342698994836243  0.6197372146684261  0.19957878673541093  1.0000
  C   C68       1.0  0.8430517645732443  0.6134310312192743  0.1731467794572896  1.0000
  O   O87       1.0  0.9023181611957372  0.7090102978585895  0.12073846273264056  1.0000
  H   H61       1.0  0.936006073728468  0.7252632650111472  0.11939781427602617  1.0000
  H   H62       1.0  0.8756964395133779  0.6456859292925192  0.07883380855858445  1.0000
  H   H63       1.0  0.9401452970936582  0.6431874480779196  0.08969658706224992  1.0000
  H   H64       1.0  0.9016819472340506  0.577810714593276  0.13643723386796996  1.0000
  H   H65       1.0  0.934641663063646  0.6596676892541402  0.21433780086227308  1.0000
  H   H66       1.0  0.9735887271648469  0.6086670917350785  0.18502750029965373  1.0000
  H   H67       1.0  0.9218817405176016  0.593949853103291  0.23072222668281783  1.0000
  H   H68       1.0  0.833449916150271  0.574242550747913  0.18328174451924248  1.0000
  H   H69       1.0  0.816305099667084  0.6263799016467111  0.1452974714380133  1.0000
  H   H70       1.0  0.8373384865450136  0.6374392932602231  0.20720530578577398  1.0000
  C   C69       1.0  0.8551176006827739  0.8615245818860966  0.31684490097836415  1.0000
  C   C70       1.0  0.8613341009590132  0.8084631876971619  0.2965159485953622  1.0000
  C   C71       1.0  0.8709957381639282  0.8703008852045679  0.3742329333681907  1.0000
  C   C72       1.0  0.8813572107266984  0.9023135620586648  0.27789902498757363  1.0000
  O   O88       1.0  0.9147139853902139  0.7924210143270908  0.2897421862105129  1.0000
  H   H71       1.0  0.9156947513709104  0.7548732760063201  0.29386109672029986  1.0000
  H   H72       1.0  0.8397978750944974  0.804086342249896  0.26036213206896164  1.0000
  H   H73       1.0  0.8379877313950721  0.784280924970306  0.3237110293660848  1.0000
  H   H74       1.0  0.8142722810810683  0.8718404463395651  0.3144951251957733  1.0000
  H   H75       1.0  0.8564674474135331  0.8393176485318509  0.3981741246601665  1.0000
  H   H76       1.0  0.8597861080727166  0.9091869724134168  0.38329974884507084  1.0000
  H   H77       1.0  0.9122844912317009  0.8651080761883677  0.37623700734750365  1.0000
  H   H78       1.0  0.8778649326430304  0.9416921401956867  0.29437811637952593  1.0000
  H   H79       1.0  0.8648796523804368  0.9000998440811334  0.23912063423850427  1.0000
  H   H80       1.0  0.9218277006570006  0.8921199579990384  0.27439294949268844  1.0000
  C   C73       1.0  0.7778229699977638  0.9924870029830415  0.7064297986995316  1.0000
  C   C74       1.0  0.8344253164710496  0.9927380008887696  0.7250697179926822  1.0000
  C   C75       1.0  0.7728382719340912  0.023891328980882205  0.6582787498582652  1.0000
  C   C76       1.0  0.7587162382917612  0.936794059213545  0.7012500205717032  1.0000
  O   O89       1.0  0.8379881146564948  0.023027342755683283  0.7732031368085043  1.0000
  H   H81       1.0  0.8669051889994212  0.045231746584539115  0.7656072786719574  1.0000
  H   H82       1.0  0.8617100804146847  0.0067015942589543605  0.6958483340801299  1.0000
  H   H83       1.0  0.8460557676043888  0.9531240619120659  0.736533067145723  1.0000
  H   H84       1.0  0.7576365908640073  0.010749409774829988  0.7376958823022033  1.0000
  H   H85       1.0  0.7343438778992446  0.024483697835811655  0.6414351768533225  1.0000
  H   H86       1.0  0.7982488875207095  0.007018819738525467  0.6288619026201344  1.0000
  H   H87       1.0  0.7845541903646931  0.06432506414074723  0.6674662926832967  1.0000
  H   H88       1.0  0.718098575975141  0.9299647239224037  0.7044460375756219  1.0000
  H   H89       1.0  0.7756391464112032  0.9126102634409983  0.7312126320757627  1.0000
  H   H90       1.0  0.7721664146600932  0.9200876937979299  0.6645182458198668  1.0000
  C   C77       1.0  0.875113498889447  0.7031816581421253  0.7093938977375216  1.0000
  C   C78       1.0  0.9309769173397618  0.6871674628559115  0.7003412629332815  1.0000
  C   C79       1.0  0.8651122920640174  0.7596199687264943  0.6876821381414081  1.0000
  C   C80       1.0  0.8312162685787591  0.6649030402882604  0.6882761933465974  1.0000
  O   O90       1.0  0.9494252059215611  0.705816580423207  0.6536868499476697  1.0000
  H   H91       1.0  0.9538116329043946  0.6770405462838354  0.629920809125869  1.0000
  H   H92       1.0  0.9355913848691035  0.6450822925517623  0.7015906951712927  1.0000
  H   H93       1.0  0.9562116159333597  0.7009664071189031  0.7323244286578303  1.0000
  H   H94       1.0  0.8680039994983101  0.7064688913646473  0.751058246999543  1.0000
  H   H95       1.0  0.8246176566640849  0.7647135130342145  0.6728920798393069  1.0000
  H   H96       1.0  0.8917616085688113  0.7686450087082999  0.6584814503456817  1.0000
  H   H97       1.0  0.866620425762353  0.7895910119818533  0.7181552538605077  1.0000
  H   H98       1.0  0.7933657537340532  0.6782903617832692  0.6972866693943403  1.0000
  H   H99       1.0  0.8338630719639446  0.6246586745973528  0.7039822464489582  1.0000
  H   H100      1.0  0.8345793875629761  0.6594848735555109  0.6459986258082514  1.0000
  C   C81       1.0  0.9849047506270007  0.634432224137697  0.5336225440575633  1.0000
  O   O91       1.0  0.9680036884086526  0.6297146592856482  0.5899964667229182  1.0000
  C   C82       1.0  0.04209475183971669  0.6385461522489888  0.5333389306047632  1.0000
  C   C83       1.0  0.967748512953417  0.5833258464659693  0.5077983893958485  1.0000
  C   C84       1.0  0.9637761999378138  0.5436237956881862  0.5515246851120111  1.0000
  C   C85       1.0  0.9709101897338616  0.5742885421186372  0.6008925889703588  1.0000
  H   H101      1.0  0.9640988677295874  0.6658182685656747  0.5161764840961318  1.0000
  H   H102      1.0  0.060147514633286714  0.6018105448829254  0.5455841330601177  1.0000
  H   H103      1.0  0.059187061507993494  0.6690043207726031  0.5571509627972883  1.0000
  H   H104      1.0  0.05821664358571  0.645831951894569  0.49479816193776954  1.0000
  H   H105      1.0  0.9325479059114206  0.5859971785822078  0.48534693525391853  1.0000
  H   H106      1.0  0.9977169998550867  0.5729701228245396  0.479797309853182  1.0000
  H   H107      1.0  0.9912677334189971  0.5126332770484376  0.5476460795142587  1.0000
  H   H108      1.0  0.9247826462260391  0.524725174934711  0.5512219085880758  1.0000
  H   H109      1.0  0.9406473695573989  0.5644463887836293  0.6297061827291554  1.0000
  H   H110      1.0  0.006351025035608108  0.5683364922240628  0.6216040362532183  1.0000
  C   C86       1.0  0.1606804351610356  0.14939415278528353  0.7002470254284899  1.0000
  O   O92       1.0  0.13493139973817067  0.18564378466735984  0.7391196984875442  1.0000
  C   C87       1.0  0.12092166169269249  0.12313154705599685  0.6673777592946524  1.0000
  C   C88       1.0  0.20180936821554124  0.18464998779829145  0.6754745401106717  1.0000
  C   C89       1.0  0.17294863330175228  0.23888569498638748  0.6747195151079473  1.0000
  C   C90       1.0  0.13240225760975488  0.23809962580842403  0.717281079360516  1.0000
  H   H111      1.0  0.1805203459686688  0.12246428891907127  0.7245346850465891  1.0000
  H   H112      1.0  0.14061210054547157  0.09109779082365137  0.6462704029621411  1.0000
  H   H113      1.0  0.10004426221380283  0.15032777761098756  0.6422346601810806  1.0000
  H   H114      1.0  0.09198005861871321  0.10106871999668743  0.6889055534078687  1.0000
  H   H115      1.0  0.2350442657466373  0.182863223045651  0.7007881905573463  1.0000
  H   H116      1.0  0.21108199507641284  0.17273439016646142  0.6348051375019867  1.0000
  H   H117      1.0  0.15841076101578963  0.2446100875958765  0.6359093136607935  1.0000
  H   H118      1.0  0.2032259024338508  0.268409855422875  0.6824127216458605  1.0000
  H   H119      1.0  0.14408981469507678  0.2641514377552242  0.7480174956770125  1.0000
  H   H120      1.0  0.0908291245663367  0.24648730204427483  0.7058959155377065  1.0000
  C   C91       1.0  0.21572712351957077  0.8718335476339565  0.06588532139257033  1.0000
  O   O93       1.0  0.27104247813542054  0.8731784119662206  0.057514125397895764  1.0000
  C   C92       1.0  0.19402456219760197  0.9040037449327841  0.02264205004744016  1.0000
  C   C93       1.0  0.20131841033305897  0.8158896442848741  0.062435968588245135  1.0000
  C   C94       1.0  0.25200051760985465  0.7858342835165204  0.06550550932267186  1.0000
  C   C95       1.0  0.2925718052943277  0.8245605507121022  0.043975415640919335  1.0000
  H   H121      1.0  0.20636787957716837  0.8872659520805074  0.10488447072111651  1.0000
  H   H122      1.0  0.15192367817512203  0.8968264082698287  0.02345663387525269  1.0000
  H   H123      1.0  0.2081661421724899  0.8916121366139572  0.9853661973799348  1.0000
  H   H124      1.0  0.20336809242167356  0.943434063361871  0.024627689152321098  1.0000
  H   H125      1.0  0.1821074315200811  0.8032765108637249  0.09692528075584746  1.0000
  H   H126      1.0  0.18053874251695853  0.8052365097794271  0.027318299318121568  1.0000
  H   H127      1.0  0.2519288477238092  0.7496616871804074  0.042207813959414024  1.0000
  H   H128      1.0  0.259687208703582  0.7747902223599166  0.10446633250894775  1.0000
  H   H129      1.0  0.33004365785340317  0.8227776185736888  0.06577724167136814  1.0000
  H   H130      1.0  0.30084603614905847  0.8254324704487511  0.0010333149543632477  1.0000
  C   C96       1.0  0.7949079976990092  0.6846394705117638  0.9968359469987348  1.0000
  O   O94       1.0  0.8408552933597345  0.7194419072617143  0.006424266293486613  1.0000
  C   C97       1.0  0.7458861789053621  0.7162213615267428  0.011712814013078018  1.0000
  C   C98       1.0  0.7950624520523585  0.6734662502557092  0.9388594550204903  1.0000
  C   C99       1.0  0.8192527632690911  0.7216993170414339  0.9156418612945774  1.0000
  C   C100      1.0  0.8480330132841125  0.7494045187657739  0.9573453032217145  1.0000
  H   H131      1.0  0.8009761758046627  0.6500558760341766  0.02142933425372396  1.0000
  H   H132      1.0  0.7437150029457508  0.7260401359149657  0.05187979922274189  1.0000
  H   H133      1.0  0.7085515339356143  0.6950848773261059  0.004110785367625699  1.0000
  H   H134      1.0  0.7450372548540755  0.7508306345196509  0.9866277790050456  1.0000
  H   H135      1.0  0.8147594063493235  0.6370299700607764  0.9318124272412539  1.0000
  H   H136      1.0  0.7545390720457232  0.6669013653462328  0.9273616123394063  1.0000
  H   H137      1.0  0.7869909664902375  0.7440879163100407  0.9014021663954775  1.0000
  H   H138      1.0  0.8427754330874755  0.7122116805224259  0.880302858552843  1.0000
  H   H139      1.0  0.8886269133925251  0.7529263079789899  0.9549188751545831  1.0000
  H   H140      1.0  0.8338132479789933  0.7888973088067612  0.96689755761659  1.0000
  C   C101      1.0  0.3427721529627859  0.7172914274189289  0.8447756744525614  1.0000
  O   O95       1.0  0.3469056274066356  0.7470179498866035  0.8926158982800159  1.0000
  C   C102      1.0  0.29447469825804706  0.7285213703655437  0.8173245750514734  1.0000
  C   C103      1.0  0.3887075675194073  0.736487842297844  0.8117665178994373  1.0000
  C   C104      1.0  0.4093998517311316  0.7841736117719492  0.8375305005177877  1.0000
  C   C105      1.0  0.37488217821824926  0.7959788301140409  0.8828983049073863  1.0000
  H   H141      1.0  0.34745829037817305  0.6753557290696339  0.8556392194790723  1.0000
  H   H142      1.0  0.2635332370804046  0.7165697461599796  0.8438481818096206  1.0000
  H   H143      1.0  0.2943298254402654  0.714583302206111  0.7769951253247258  1.0000
  H   H144      1.0  0.2902910165678233  0.7702332440439803  0.811176295308475  1.0000
  H   H145      1.0  0.4173256979526255  0.7045778795050316  0.8105389315625202  1.0000
  H   H146      1.0  0.37756577470001423  0.7460003908093276  0.7708445460131912  1.0000
  H   H147      1.0  0.4111321933617482  0.8157949787134664  0.8114196663118913  1.0000
  H   H148      1.0  0.4497227860136932  0.7760388880750823  0.8485036583111916  1.0000
  H   H149      1.0  0.3965261005425445  0.8039226896224019  0.9172201318332676  1.0000
  H   H150      1.0  0.3480669095174251  0.8267807841338195  0.877700513492691  1.0000
  C   C106      1.0  0.6863526490712453  0.7493297827883468  0.7878168500509687  1.0000
  O   O96       1.0  0.7298267587712695  0.7593267737381266  0.7525223056342678  1.0000
  C   C107      1.0  0.6949626169322638  0.7054566979472892  0.8240733806386537  1.0000
  C   C108      1.0  0.6780496736098118  0.7998612683260202  0.816040221218803  1.0000
  C   C109      1.0  0.7259102102926696  0.8294854599938333  0.8041399540438811  1.0000
  C   C110      1.0  0.7633993096157666  0.7899830884172783  0.7822059028225996  1.0000
  H   H151      1.0  0.6558898814105587  0.7396328855325432  0.760609121653297  1.0000
  H   H152      1.0  0.6592606656232298  0.6875300281617883  0.8318267592199313  1.0000
  H   H153      1.0  0.7134204870496306  0.7152122342007662  0.860793657547809  1.0000
  H   H154      1.0  0.7186186617257487  0.6746206336608899  0.8085742887045524  1.0000
  H   H155      1.0  0.6418402841771194  0.8178350792665134  0.8056500040493301  1.0000
  H   H156      1.0  0.674254235740786  0.7926854647087557  0.857926862105992  1.0000
  H   H157      1.0  0.741656505844414  0.8489037832364933  0.8389132629257061  1.0000
  H   H158      1.0  0.7176597416461463  0.8577322101084524  0.7714937460580564  1.0000
  H   H159      1.0  0.7912233223811445  0.8045424233429123  0.7553814358476306  1.0000
  H   H160      1.0  0.7852026686919062  0.7688799479604167  0.8114104232325531  1.0000
  C   C111      1.0  0.019583393937418186  0.7381856904004175  0.8649275600582746  1.0000
  O   O97       1.0  0.04597642352885066  0.6957103599679569  0.8904397399219093  1.0000
  C   C112      1.0  0.03861665442868877  0.7462567927011157  0.8118136590544298  1.0000
  C   C113      1.0  0.9594482586480848  0.7281200956559739  0.8666798312828718  1.0000
  C   C114      1.0  0.9598928418984201  0.6738330314372356  0.8923518311597736  1.0000
  C   C115      1.0  0.013607313551640231  0.653298650931665  0.8799889674476493  1.0000
  H   H161      1.0  0.027788637736062445  0.7724956362221949  0.8879240119432882  1.0000
  H   H162      1.0  0.03286727317443953  0.7093506340019495  0.7927398878307795  1.0000
  H   H163      1.0  0.0809490283504812  0.7507053080344271  0.8150414867564327  1.0000
  H   H164      1.0  0.02478237346252395  0.7825953412332591  0.7911830799317607  1.0000
  H   H165      1.0  0.940662700014307  0.757633141511203  0.8890220559193317  1.0000
  H   H166      1.0  0.9416243029238683  0.728669309274707  0.8277864621069917  1.0000
  H   H167      1.0  0.9310217589262181  0.6479456386407749  0.8760337095653564  1.0000
  H   H168      1.0  0.9543110225381765  0.6752618300210718  0.9345968214771898  1.0000
  H   H169      1.0  0.02410281263392961  0.6185391394610572  0.9025760961332162  1.0000
  H   H170      1.0  0.01872120904090597  0.6491245507770088  0.837590672561152  1.0000
  C   C116      1.0  0.019990839155893537  0.848469548044571  0.052458907232445826  1.0000
  O   O98       1.0  0.964647008216337  0.8498351084936611  0.06654338125535104  1.0000
  C   C117      1.0  0.034859964289498196  0.8031496513328102  0.01965851317626794  1.0000
  C   C118      1.0  0.02742618740861241  0.9030153137236336  0.02715430175534704  1.0000
  C   C119      1.0  0.9744844091097034  0.9264521329833326  0.019540238701221853  1.0000
  C   C120      1.0  0.937678626577143  0.8823000338265472  0.031270452782890576  1.0000
  H   H171      1.0  0.03878950533032774  0.8470154542068367  0.0893114093324336  1.0000
  H   H172      1.0  0.027546608147625627  0.7674323695668681  0.038728566764118  1.0000
  H   H173      1.0  0.0755818353869512  0.804362290474242  0.013234706796488568  1.0000
  H   H174      1.0  0.01564749075697178  0.7997949640998927  0.9820254991889459  1.0000
  H   H175      1.0  0.05033027329075447  0.9259726729435314  0.05348681436813474  1.0000
  H   H176      1.0  0.047958268345646836  0.8947433824374391  0.990119405544295  1.0000
  H   H177      1.0  0.9690002064338221  0.9432635120287682  0.9801543785971686  1.0000
  H   H178      1.0  0.9695337063342244  0.9597219073038946  0.04784022382745438  1.0000
  H   H179      1.0  0.9033889936107689  0.8957555758547971  0.050386995981314485  1.0000
  H   H180      1.0  0.9291142668254262  0.8588310206073413  0.99793658565461  1.0000
  C   C121      1.0  0.41711303266821875  0.7740083690576028  0.15901593080223736  1.0000
  O   O99       1.0  0.3622146664802697  0.7698212380145748  0.17139450823269242  1.0000
  C   C122      1.0  0.44603777223959906  0.8093201602383254  0.19771421991396185  1.0000
  C   C123      1.0  0.43892444023423516  0.719449955751591  0.16447855586002036  1.0000
  C   C124      1.0  0.39417866913368316  0.6838993927045247  0.17260484780558788  1.0000
  C   C125      1.0  0.3455083010646546  0.7158990386702496  0.17287274754005713  1.0000
  H   H181      1.0  0.41922480310731125  0.790740412988539  0.12084347636246114  1.0000
  H   H182      1.0  0.4238239401797448  0.8457384271463909  0.19816186925567872  1.0000
  H   H183      1.0  0.48423743824038723  0.811448410918594  0.1777171719230205  1.0000
  H   H184      1.0  0.45233092480037906  0.7924788868019189  0.23592308418889482  1.0000
  H   H185      1.0  0.4658293921079717  0.7096373135461312  0.13269813542808145  1.0000
  H   H186      1.0  0.46334585808885753  0.7225689372095465  0.1997351573958737  1.0000
  H   H187      1.0  0.39866666039353293  0.6674317991552534  0.21089343045644304  1.0000
  H   H188      1.0  0.3912352214073256  0.6533572899293385  0.1439817349738746  1.0000
  H   H189      1.0  0.3262302515027037  0.7060710660078817  0.13578568944937522  1.0000
  H   H190      1.0  0.3222673283919567  0.7112949191993209  0.2071642968135448  1.0000
  C   C126      1.0  0.08070719039275574  0.5268234864188156  0.3427679818923295  1.0000
  O   O100      1.0  0.08221609061393666  0.47067185537862827  0.3482332897800714  1.0000
  C   C127      1.0  0.0246000943298865  0.543161920868636  0.3412809275722426  1.0000
  C   C128      1.0  0.11144360670925224  0.5470366938521612  0.3890506312979197  1.0000
  C   C129      1.0  0.10743545875062635  0.5022985879800634  0.4283042662111405  1.0000
  C   C130      1.0  0.07543044712498359  0.46040811447864727  0.4019703738572311  1.0000
  H   H191      1.0  0.10179615017697734  0.5373516777004615  0.30719365663705556  1.0000
  H   H192      1.0  0.0059656556750804415  0.5210975607636357  0.37358220027763467  1.0000
  H   H193      1.0  0.004916017616724282  0.5313727995062978  0.30705568252488247  1.0000
  H   H194      1.0  0.017110744542708802  0.5851252140403655  0.34664275487585483  1.0000
  H   H195      1.0  0.15060295931248818  0.556020341600315  0.376506484932857  1.0000
  H   H196      1.0  0.09447892309473546  0.5846614677188952  0.39922622207067904  1.0000
  H   H197      1.0  0.08803323248771977  0.5185335418457541  0.46329986671813317  1.0000
  H   H198      1.0  0.14684584758573263  0.49050563400349817  0.4371844333751643  1.0000
  H   H199      1.0  0.0875296269782883  0.4206025831167344  0.41295847884612036  1.0000
  H   H200      1.0  0.033783038017845594  0.4638306389833833  0.40837467223059487  1.0000
